ZINC08441965
     RDKit          3D

 62 66  0  0  0  0  0  0  0  0999 V2000
    1.2900   -4.2540   -3.4989 H   0  0  0  0  0  0  0  0  0  0  0  0
    1.8121   -3.9783   -2.6562 N   0  0  0  0  0  0  0  0  0  0  0  0
    1.1101   -3.4018   -1.7318 C   0  0  0  0  0  0  0  0  0  0  0  0
   -0.3978   -3.2007   -1.8992 C   0  0  0  0  0  0  0  0  0  0  0  0
   -0.6753   -2.3350   -3.0556 C   0  0  0  0  0  0  0  0  0  0  0  0
   -0.8964   -1.5950   -3.9189 N   0  0  0  0  0  0  0  0  0  0  0  0
   -0.9992   -2.5721   -0.6530 C   0  0  0  0  0  0  0  0  0  0  0  0
   -2.1007   -3.0679   -0.0520 C   0  0  0  0  0  0  0  0  0  0  0  0
   -2.7700   -2.4348    1.1259 C   0  0  0  0  0  0  0  0  0  0  0  0
   -2.3902   -0.9887    1.2817 N   0  0  0  0  0  4  0  0  0  0  0  0
   -3.1726   -0.0373    0.3935 C   0  0  0  0  0  0  0  0  0  0  0  0
   -3.6416    1.1641    1.1670 C   0  0  0  0  0  0  0  0  0  0  0  0
   -2.8415    2.3100    1.2738 C   0  0  0  0  0  0  0  0  0  0  0  0
   -3.2664    3.3957    2.0423 C   0  0  0  0  0  0  0  0  0  0  0  0
   -4.4893    3.3472    2.7099 C   0  0  0  0  0  0  0  0  0  0  0  0
   -5.2931    2.2161    2.6080 C   0  0  0  0  0  0  0  0  0  0  0  0
   -4.8723    1.1260    1.8442 C   0  0  0  0  0  0  0  0  0  0  0  0
   -0.8941   -0.8093    1.2293 C   0  0  0  0  0  0  0  0  0  0  0  0
   -0.2950   -1.3332   -0.1115 C   0  0  0  0  0  0  0  0  0  0  0  0
    1.2626   -1.5288    0.0263 C   0  0  0  0  0  0  0  0  0  0  0  0
    1.9508   -0.2926   -0.5886 C   0  0  0  0  0  0  0  0  0  0  0  0
    2.1213   -0.2350   -1.9831 C   0  0  0  0  0  0  0  0  0  0  0  0
    2.6285    0.9006   -2.6062 C   0  0  0  0  0  0  0  0  0  0  0  0
    2.9845    2.0173   -1.8576 C   0  0  0  0  0  0  0  0  0  0  0  0
    3.4607    3.1766   -2.4222 O   0  0  0  0  0  0  0  0  0  0  0  0
    3.9949    3.0892   -3.7379 C   0  0  0  0  0  0  0  0  0  0  0  0
    2.8406    2.0019   -0.4505 C   0  0  0  0  0  0  0  0  0  0  0  0
    3.2017    3.1308    0.3200 C   0  0  0  0  0  0  0  0  0  0  0  0
    3.1144    3.1386    1.7093 C   0  0  0  0  0  0  0  0  0  0  0  0
    2.6594    2.0099    2.3634 C   0  0  0  0  0  0  0  0  0  0  0  0
    2.2828    0.8830    1.6272 C   0  0  0  0  0  0  0  0  0  0  0  0
    2.3434    0.8384    0.2067 C   0  0  0  0  0  0  0  0  0  0  0  0
    1.7699   -2.9531   -0.4186 C   0  0  0  0  0  0  0  0  0  0  0  0
    3.2438   -2.9663   -0.4936 C   0  0  0  0  0  0  0  0  0  0  0  0
    4.4043   -2.9348   -0.5009 N   0  0  0  0  0  0  0  0  0  0  0  0
    1.3366   -3.9228    0.6165 C   0  0  0  0  0  0  0  0  0  0  0  0
    0.8634   -4.5888    1.4421 N   0  0  0  0  0  0  0  0  0  0  0  0
   -0.8337   -4.1905   -2.0781 H   0  0  0  0  0  0  0  0  0  0  0  0
   -2.5818   -3.9705   -0.4320 H   0  0  0  0  0  0  0  0  0  0  0  0
   -3.8608   -2.4891    1.0439 H   0  0  0  0  0  0  0  0  0  0  0  0
   -2.4749   -2.9476    2.0496 H   0  0  0  0  0  0  0  0  0  0  0  0
   -2.6805   -0.7406    2.2374 H   0  0  0  0  0  0  0  0  0  0  0  0
   -4.0389   -0.5783   -0.0095 H   0  0  0  0  0  0  0  0  0  0  0  0
   -2.5487    0.2526   -0.4581 H   0  0  0  0  0  0  0  0  0  0  0  0
   -1.8859    2.3872    0.7553 H   0  0  0  0  0  0  0  0  0  0  0  0
   -2.6501    4.2891    2.1172 H   0  0  0  0  0  0  0  0  0  0  0  0
   -4.8201    4.2021    3.2995 H   0  0  0  0  0  0  0  0  0  0  0  0
   -6.2542    2.1930    3.1208 H   0  0  0  0  0  0  0  0  0  0  0  0
   -5.5257    0.2596    1.7719 H   0  0  0  0  0  0  0  0  0  0  0  0
   -0.4976   -1.3626    2.0899 H   0  0  0  0  0  0  0  0  0  0  0  0
   -0.6756    0.2539    1.3779 H   0  0  0  0  0  0  0  0  0  0  0  0
   -0.4901   -0.5445   -0.8551 H   0  0  0  0  0  0  0  0  0  0  0  0
    1.4995   -1.5077    1.0945 H   0  0  0  0  0  0  0  0  0  0  0  0
    1.8658   -1.0568   -2.6427 H   0  0  0  0  0  0  0  0  0  0  0  0
    2.7191    0.8889   -3.6903 H   0  0  0  0  0  0  0  0  0  0  0  0
    4.7116    2.2652   -3.8342 H   0  0  0  0  0  0  0  0  0  0  0  0
    4.5284    4.0223   -3.9455 H   0  0  0  0  0  0  0  0  0  0  0  0
    3.1870    2.9987   -4.4731 H   0  0  0  0  0  0  0  0  0  0  0  0
    3.5866    4.0253   -0.1708 H   0  0  0  0  0  0  0  0  0  0  0  0
    3.4348    4.0124    2.2748 H   0  0  0  0  0  0  0  0  0  0  0  0
    2.6223    1.9940    3.4507 H   0  0  0  0  0  0  0  0  0  0  0  0
    1.9834    0.0286    2.2232 H   0  0  0  0  0  0  0  0  0  0  0  0
  1  2  1  0
  2  3  2  0
  3  4  1  0
  4  5  1  0
  5  6  3  0
  4  7  1  0
  7  8  2  0
  8  9  1  0
  9 10  1  0
 10 11  1  0
 11 12  1  0
 12 13  2  0
 13 14  1  0
 14 15  2  0
 15 16  1  0
 16 17  2  0
 10 18  1  0
 18 19  1  0
 19 20  1  0
 20 21  1  0
 21 22  2  0
 22 23  1  0
 23 24  2  0
 24 25  1  0
 25 26  1  0
 24 27  1  0
 27 28  2  0
 28 29  1  0
 29 30  2  0
 30 31  1  0
 31 32  2  0
 20 33  1  0
 33 34  1  0
 34 35  3  0
 33 36  1  0
 36 37  3  0
 33  3  1  0
 19  7  1  0
 32 21  1  0
 17 12  1  0
 32 27  1  0
  4 38  1  0
  8 39  1  0
  9 40  1  0
  9 41  1  0
 10 42  1  0
 11 43  1  0
 11 44  1  0
 13 45  1  0
 14 46  1  0
 15 47  1  0
 16 48  1  0
 17 49  1  0
 18 50  1  0
 18 51  1  0
 19 52  1  0
 20 53  1  0
 22 54  1  0
 23 55  1  0
 26 56  1  0
 26 57  1  0
 26 58  1  0
 28 59  1  0
 29 60  1  0
 30 61  1  0
 31 62  1  0
M  CHG  1  10   1
M  END
