REMARK  5 active torsions:
REMARK  status: ('A' for Active; 'I' for Inactive)
REMARK    1  A    between atoms: C_5  and  C_6 
REMARK       I    between atoms: C_6  and  N_8 
REMARK    2  A    between atoms: N_8  and  C_9 
REMARK    3  A    between atoms: C_12  and  C_13 
REMARK    4  A    between atoms: N_21  and  N_22 
REMARK    5  A    between atoms: C_23  and  C_24 
ROOT
HETATM    1  H   UNL     1       2.248  -0.129   2.084  1.00  0.00     0.189 HD
HETATM    2  N   UNL     1       1.255  -0.151   2.366  1.00  0.00    -0.276 NA
HETATM    3  C   UNL     1       0.623  -0.540   1.310  1.00  0.00     0.186 C 
HETATM    4  S   UNL     1      -1.098  -0.699   1.418  1.00  0.00    -0.076 SA
HETATM    5  C   UNL     1      -1.528  -0.538  -0.327  1.00  0.00     0.156 C 
HETATM    6  C   UNL     1      -0.716  -1.562  -1.089  1.00  0.00     0.130 C 
HETATM    7  C   UNL     1       0.736  -1.169  -1.113  1.00  0.00     0.248 C 
HETATM    8  O   UNL     1       1.341  -1.160  -2.188  1.00  0.00    -0.271 OA
HETATM    9  N   UNL     1       1.312  -0.840   0.130  1.00  0.00    -0.177 N 
ENDROOT
BRANCH   5  10
HETATM   10  C   UNL     1      -3.031  -0.748  -0.532  1.00  0.00     0.236 C 
HETATM   11  O   UNL     1      -3.449  -1.620  -1.288  1.00  0.00    -0.272 OA
HETATM   12  N   UNL     1      -3.796   0.171   0.168  1.00  0.00    -0.326 N 
HETATM   13  H   UNL     1      -3.310   0.734   0.858  1.00  0.00     0.169 HD
BRANCH  12  14
HETATM   14  C   UNL     1      -5.194   0.348   0.124  1.00  0.00     0.034 A 
HETATM   15  C   UNL     1      -6.044  -0.339  -0.741  1.00  0.00     0.030 A 
HETATM   16  C   UNL     1      -7.422  -0.082  -0.731  1.00  0.00     0.020 A 
HETATM   17  C   UNL     1      -7.979   0.867   0.139  1.00  0.00     0.041 A 
HETATM   18  C   UNL     1      -7.116   1.550   1.006  1.00  0.00     0.020 A 
HETATM   19  C   UNL     1      -5.740   1.295   0.998  1.00  0.00     0.030 A 
BRANCH  17  20
HETATM   20  C   UNL     1      -9.470   1.149   0.143  1.00  0.00     0.209 C 
HETATM   21  O   UNL     1     -10.187   0.490  -0.674  1.00  0.00    -0.644 OA
HETATM   22  O   UNL     1      -9.889   2.027   0.962  1.00  0.00    -0.644 OA
ENDBRANCH  17  20
ENDBRANCH  12  14
ENDBRANCH   5  10
BRANCH   9  23
HETATM   23  N   UNL     1       2.686  -0.548   0.215  1.00  0.00    -0.174 NA
HETATM   24  C   UNL     1       3.508  -1.210  -0.534  1.00  0.00     0.153 C 
BRANCH  24  25
HETATM   25  C   UNL     1       4.924  -0.896  -0.488  1.00  0.00     0.011 A 
HETATM   26  C   UNL     1       5.879  -1.606  -1.193  1.00  0.00     0.102 A 
HETATM   27  N   UNL     1       7.106  -1.061  -0.929  1.00  0.00    -0.364 N 
HETATM   28  C   UNL     1       6.980  -0.002  -0.063  1.00  0.00     0.043 A 
HETATM   29  H   UNL     1       7.984  -1.383  -1.314  1.00  0.00     0.165 HD
HETATM   30  C   UNL     1       7.962   0.841   0.473  1.00  0.00     0.030 A 
HETATM   31  C   UNL     1       5.620   0.133   0.230  1.00  0.00     0.004 A 
HETATM   32  C   UNL     1       7.546   1.857   1.336  1.00  0.00     0.002 A 
HETATM   33  C   UNL     1       6.200   2.024   1.647  1.00  0.00     0.001 A 
HETATM   34  C   UNL     1       5.231   1.173   1.102  1.00  0.00     0.014 A 
ENDBRANCH  24  25
ENDBRANCH   9  23
TORSDOF 5
