REMARK  Name = ZINC20533791
REMARK  5 active torsions:
REMARK  status: ('A' for Active; 'I' for Inactive)
REMARK    1  A    between atoms: C_5  and  C_6
REMARK    2  A    between atoms: N_8  and  C_9
REMARK    3  A    between atoms: C_12  and  C_13
REMARK    4  A    between atoms: N_21  and  N_22
REMARK    5  A    between atoms: C_23  and  C_24
REMARK                            x       y       z     vdW  Elec       q    Type
REMARK                         _______ _______ _______ _____ _____    ______ ____
ROOT
ATOM      1  H   UNL     1       2.248  -0.129   2.084  0.00  0.00    +0.000 HD
ATOM      2  N   UNL     1       1.255  -0.151   2.366  0.00  0.00    +0.000 NA
ATOM      3  C   UNL     1       0.623  -0.540   1.310  0.00  0.00    +0.000 C 
ATOM      4  S   UNL     1      -1.098  -0.699   1.418  0.00  0.00    +0.000 S 
ATOM      5  C   UNL     1      -1.528  -0.538  -0.327  0.00  0.00    +0.000 C 
ATOM      6  C   UNL     1      -0.716  -1.562  -1.089  0.00  0.00    +0.000 C 
ATOM      7  C   UNL     1       0.736  -1.169  -1.113  0.00  0.00    +0.000 C 
ATOM      8  O   UNL     1       1.341  -1.160  -2.188  0.00  0.00    +0.000 OA
ATOM      9  N   UNL     1       1.312  -0.840   0.130  0.00  0.00    +0.000 N 
ENDROOT
BRANCH   5  10
ATOM     10  C   UNL     1      -3.031  -0.748  -0.532  0.00  0.00    +0.000 C 
ATOM     11  O   UNL     1      -3.449  -1.620  -1.288  0.00  0.00    +0.000 OA
ATOM     12  N   UNL     1      -3.796   0.171   0.168  0.00  0.00    +0.000 N 
ATOM     13  H   UNL     1      -3.310   0.734   0.858  0.00  0.00    +0.000 HD
BRANCH  12  14
ATOM     14  C   UNL     1      -5.194   0.348   0.124  0.00  0.00    +0.000 A 
ATOM     15  C   UNL     1      -6.044  -0.339  -0.741  0.00  0.00    +0.000 A 
ATOM     16  C   UNL     1      -7.422  -0.082  -0.731  0.00  0.00    +0.000 A 
ATOM     17  C   UNL     1      -7.979   0.867   0.139  0.00  0.00    +0.000 A 
ATOM     18  C   UNL     1      -7.116   1.550   1.006  0.00  0.00    +0.000 A 
ATOM     19  C   UNL     1      -5.740   1.295   0.998  0.00  0.00    +0.000 A 
BRANCH  17  20
ATOM     20  C   UNL     1      -9.470   1.149   0.143  0.00  0.00    +0.000 C 
ATOM     21  O   UNL     1     -10.187   0.490  -0.674  0.00  0.00    +0.000 OA
ATOM     22  O   UNL     1      -9.889   2.027   0.962  0.00  0.00    +0.000 OA
ENDBRANCH  17  20
ENDBRANCH  12  14
ENDBRANCH   5  10
BRANCH   9  23
ATOM     23  N   UNL     1       2.686  -0.548   0.215  0.00  0.00    +0.000 NA
ATOM     24  C   UNL     1       3.508  -1.210  -0.534  0.00  0.00    +0.000 C 
BRANCH  24  25
ATOM     25  C   UNL     1       4.924  -0.896  -0.488  0.00  0.00    +0.000 A 
ATOM     26  C   UNL     1       5.879  -1.606  -1.193  0.00  0.00    +0.000 A 
ATOM     27  N   UNL     1       7.106  -1.061  -0.929  0.00  0.00    +0.000 N 
ATOM     28  C   UNL     1       6.980  -0.002  -0.063  0.00  0.00    +0.000 A 
ATOM     29  C   UNL     1       7.962   0.841   0.473  0.00  0.00    +0.000 A 
ATOM     30  C   UNL     1       7.546   1.857   1.336  0.00  0.00    +0.000 A 
ATOM     31  C   UNL     1       6.200   2.024   1.647  0.00  0.00    +0.000 A 
ATOM     32  C   UNL     1       5.231   1.173   1.102  0.00  0.00    +0.000 A 
ATOM     33  C   UNL     1       5.620   0.133   0.230  0.00  0.00    +0.000 A 
ATOM     34  H   UNL     1       7.984  -1.383  -1.314  0.00  0.00    +0.000 HD
ENDBRANCH  24  25
ENDBRANCH   9  23
TORSDOF 5
