MODEL 1
REMARK VINA RESULT:    -9.852      0.000      0.000
REMARK INTER + INTRA:         -12.401
REMARK INTER:                 -11.893
REMARK INTRA:                  -0.508
REMARK UNBOUND:                -0.244
REMARK  Name = ZINC20533791
REMARK  4 active torsions:
REMARK  status: ('A' for Active; 'I' for Inactive)
REMARK    1  A    between atoms: _5  and  _6
REMARK    2  A    between atoms: _12  and  _13
REMARK    3  A    between atoms: _21  and  _22
REMARK    4  A    between atoms: _23  and  _24
ROOT
ATOM     24  C14 UNL     1      41.682  29.223  16.661  0.00  0.00     0.020 A
ATOM     25  C15 UNL     1      42.826  28.489  16.405  0.00  0.00     0.011 A
ATOM     26  N5  UNL     1      42.676  27.862  15.198  0.00  0.00    -0.361 N
ATOM     27  C16 UNL     1      41.453  28.167  14.651  0.00  0.00     0.046 A
ATOM     28  C17 UNL     1      40.882  27.753  13.441  0.00  0.00    -0.038 A
ATOM     29  C18 UNL     1      39.602  28.217  13.134  0.00  0.00    -0.060 A
ATOM     30  C19 UNL     1      38.920  29.061  14.005  0.00  0.00    -0.061 A
ATOM     31  C20 UNL     1      39.505  29.466  15.211  0.00  0.00    -0.052 A
ATOM     32  C21 UNL     1      40.800  29.017  15.548  0.00  0.00     0.008 A
ATOM     42  H11 UNL     1      43.733  28.358  16.980  0.00  0.00     0.082 H 
ATOM     43  H12 UNL     1      43.361  27.257  14.764  0.00  0.00     0.166 HD
ATOM     44  H13 UNL     1      41.410  27.092  12.761  0.00  0.00     0.064 H 
ATOM     45  H14 UNL     1      39.130  27.914  12.202  0.00  0.00     0.062 H 
ATOM     46  H15 UNL     1      37.921  29.411  13.752  0.00  0.00     0.062 H 
ATOM     47  H16 UNL     1      38.951  30.118  15.880  0.00  0.00     0.063 H 
ENDROOT
BRANCH 24 23
ATOM     22  N4  UNL     1      41.907  31.249  17.873  0.00  0.00    -0.171 N
ATOM     23  C13 UNL     1      41.504  30.020  17.861  0.00  0.00     0.057 C
ATOM     41  H10 UNL     1      41.065  29.502  18.731  0.00  0.00     0.087 H 
BRANCH 22 21
ATOM      1  H1  UNL     1      43.756  31.185  18.536  0.00  0.00     0.190 HD
ATOM      2  N1  UNL     1      43.992  31.748  19.368  0.00  0.00    -0.277 N
ATOM      3  C1  UNL     1      42.874  32.280  19.732  0.00  0.00     0.185 C
ATOM      4  S1  UNL     1      42.891  33.305  21.128  0.00  0.00    -0.073 SA
ATOM      5  C2  UNL     1      41.418  34.294  20.796  0.00  0.00     0.100 C
ATOM     18  C11 UNL     1      40.271  33.334  20.571  0.00  0.00     0.050 C
ATOM     19  C12 UNL     1      40.436  32.615  19.259  0.00  0.00     0.250 C
ATOM     20  O4  UNL     1      39.489  32.577  18.469  0.00  0.00    -0.272 OA
ATOM     21  N3  UNL     1      41.692  32.018  19.032  0.00  0.00    -0.176 N
ATOM     33  H2  UNL     1      41.589  34.908  19.902  0.00  0.00     0.053 H 
ATOM     39  H8  UNL     1      39.325  33.888  20.517  0.00  0.00     0.038 H 
ATOM     40  H9  UNL     1      40.154  32.598  21.377  0.00  0.00     0.038 H 
BRANCH 5 6
ATOM      6  C3  UNL     1      41.134  35.244  21.963  0.00  0.00     0.238 C
ATOM      7  O1  UNL     1      41.963  36.079  22.312  0.00  0.00    -0.273 OA
ATOM      8  N2  UNL     1      39.910  34.997  22.563  0.00  0.00    -0.325 N
ATOM      9  C4  UNL     1      39.378  35.594  23.724  0.00  0.00     0.041 A
ATOM     10  C5  UNL     1      40.073  36.491  24.534  0.00  0.00    -0.038 A
ATOM     11  C6  UNL     1      39.472  37.019  25.684  0.00  0.00    -0.051 A
ATOM     12  C7  UNL     1      38.166  36.660  26.053  0.00  0.00    -0.003 A
ATOM     16  C9  UNL     1      37.476  35.760  25.231  0.00  0.00    -0.051 A
ATOM     17  C10 UNL     1      38.074  35.232  24.082  0.00  0.00    -0.038 A
ATOM     34  H3  UNL     1      39.282  34.372  22.071  0.00  0.00     0.169 HD
ATOM     35  H4  UNL     1      41.087  36.803  24.310  0.00  0.00     0.064 H 
ATOM     36  H5  UNL     1      40.024  37.717  26.311  0.00  0.00     0.063 H 
ATOM     37  H6  UNL     1      36.461  35.471  25.499  0.00  0.00     0.063 H 
ATOM     38  H7  UNL     1      37.496  34.537  23.480  0.00  0.00     0.064 H 
BRANCH 12 13
ATOM     13  C8  UNL     1      37.519  37.227  27.303  0.00  0.00     0.071 C
ATOM     14  O2  UNL     1      37.760  36.633  28.401  0.00  0.00    -0.545 OA
ATOM     15  O3  UNL     1      36.781  38.252  27.156  0.00  0.00    -0.545 O
ENDBRANCH 12 13
ENDBRANCH 5 6
ENDBRANCH 22 21
ENDBRANCH 24 23
TORSDOF 4
ENDMDL
