REMARK  Name = ZINC08441965
REMARK  8 active torsions:
REMARK  status: ('A' for Active; 'I' for Inactive)
REMARK    1  A    between atoms: C_4  and  C_5
REMARK    2  A    between atoms: N_10  and  C_12
REMARK    3  A    between atoms: C_12  and  C_13
REMARK    4  A    between atoms: C_21  and  C_22
REMARK    5  A    between atoms: C_25  and  O_26
REMARK    6  A    between atoms: O_26  and  C_27
REMARK    7  A    between atoms: C_34  and  C_35
REMARK    8  A    between atoms: C_34  and  C_37
REMARK                            x       y       z     vdW  Elec       q    Type
REMARK                         _______ _______ _______ _____ _____    ______ ____
ROOT
ATOM      1  H   UNL     1       0.304  -0.175  -0.091  0.00  0.00    +0.000 HD
ATOM      2  N   UNL     1       0.221   0.791  -0.049  0.00  0.00    +0.000 NA
ATOM      3  C   UNL     1       1.269   1.524  -0.057  0.00  0.00    +0.000 C 
ATOM      4  C   UNL     1       2.651   0.908  -0.140  0.00  0.00    +0.000 C 
ATOM      5  C   UNL     1       3.429   1.679  -1.192  0.00  0.00    +0.000 C 
ATOM      6  C   UNL     1       4.114   1.016  -2.080  0.00  0.00    +0.000 C 
ATOM      7  C   UNL     1       4.910   1.713  -3.148  0.00  0.00    +0.000 C 
ATOM      8  N   UNL     1       5.321   3.034  -2.651  0.00  0.00    +0.000 N 
ATOM      9  H   UNL     1       5.891   2.922  -1.826  0.00  0.00    +0.000 HD
ATOM     10  C   UNL     1       4.123   3.810  -2.320  0.00  0.00    +0.000 C 
ATOM     11  C   UNL     1       3.371   3.181  -1.157  0.00  0.00    +0.000 C 
ATOM     12  C   UNL     1       1.910   3.639  -1.177  0.00  0.00    +0.000 C 
ATOM     13  C   UNL     1       1.164   3.032   0.008  0.00  0.00    +0.000 C 
ENDROOT
BRANCH  12  14
ATOM     14  C   UNL     1       1.260   3.187  -2.459  0.00  0.00    +0.000 A 
ATOM     15  C   UNL     1       1.193   1.860  -2.761  0.00  0.00    +0.000 A 
ATOM     16  C   UNL     1       0.597   1.421  -3.939  0.00  0.00    +0.000 A 
ATOM     17  C   UNL     1       0.062   2.309  -4.829  0.00  0.00    +0.000 A 
ATOM     18  C   UNL     1       0.113   3.690  -4.550  0.00  0.00    +0.000 A 
ATOM     19  C   UNL     1      -0.426   4.634  -5.438  0.00  0.00    +0.000 A 
ATOM     20  C   UNL     1      -0.358   5.960  -5.134  0.00  0.00    +0.000 A 
ATOM     21  C   UNL     1       0.239   6.396  -3.953  0.00  0.00    +0.000 A 
ATOM     22  C   UNL     1       0.772   5.508  -3.069  0.00  0.00    +0.000 A 
ATOM     23  C   UNL     1       0.716   4.132  -3.345  0.00  0.00    +0.000 A 
BRANCH  17  24
ATOM     24  O   UNL     1      -0.516   1.865  -5.975  0.00  0.00    +0.000 OA
ATOM     25  C   UNL     1      -0.531   0.452  -6.189  0.00  0.00    +0.000 C 
ENDBRANCH  17  24
ENDBRANCH  12  14
BRANCH   4  26
ATOM     26  C   UNL     1       2.545  -0.506  -0.533  0.00  0.00    +0.000 C 
ATOM     27  N   UNL     1       2.463  -1.598  -0.836  0.00  0.00    +0.000 NA
ENDBRANCH   4  26
BRANCH  13  28
ATOM     28  C   UNL     1      -0.252   3.432  -0.043  0.00  0.00    +0.000 C 
ATOM     29  N   UNL     1      -1.344   3.740  -0.083  0.00  0.00    +0.000 NA
ENDBRANCH  13  28
BRANCH  13  30
ATOM     30  C   UNL     1       1.767   3.505   1.265  0.00  0.00    +0.000 C 
ATOM     31  N   UNL     1       2.232   3.871   2.234  0.00  0.00    +0.000 NA
ENDBRANCH  13  30
BRANCH   8  32
ATOM     32  C   UNL     1       6.091   3.732  -3.690  0.00  0.00    +0.000 C 
BRANCH  32  33
ATOM     33  C   UNL     1       7.376   2.988  -3.949  0.00  0.00    +0.000 A 
ATOM     34  C   UNL     1       8.510   3.293  -3.221  0.00  0.00    +0.000 A 
ATOM     35  C   UNL     1       9.688   2.610  -3.459  0.00  0.00    +0.000 A 
ATOM     36  C   UNL     1       9.732   1.622  -4.424  0.00  0.00    +0.000 A 
ATOM     37  C   UNL     1       8.597   1.316  -5.152  0.00  0.00    +0.000 A 
ATOM     38  C   UNL     1       7.418   1.996  -4.911  0.00  0.00    +0.000 A 
ENDBRANCH  32  33
ENDBRANCH   8  32
TORSDOF 7
