REMARK  3 active torsions:
REMARK  status: ('A' for Active; 'I' for Inactive)
REMARK    1  A    between atoms: C_5  and  C_6 
REMARK    2  A    between atoms: C_8  and  C_9 
REMARK    3  A    between atoms: C_15  and  C_16 
REMARK       I    between atoms: C_16  and  N_18 
ROOT
HETATM    1  C   UNL     1       3.567   1.011   0.177  1.00  0.00     0.118 C 
HETATM    2  C   UNL     1       2.980   0.300   1.405  1.00  0.00     0.066 C 
HETATM    3  C   UNL     1       1.504   0.694   1.606  1.00  0.00     0.221 C 
HETATM    4  N   UNL     1       0.789   0.700   0.337  1.00  0.00    -0.238 N 
HETATM    5  N   UNL     1      -0.548   0.814   0.276  1.00  0.00    -0.163 NA
HETATM    6  C   UNL     1      -0.822   0.816  -1.049  1.00  0.00     0.170 A 
HETATM    7  C   UNL     1       0.382   0.778  -1.811  1.00  0.00     0.115 A 
HETATM    8 CL   UNL     1       0.540   0.785  -3.501  1.00  0.00    -0.077 Cl
HETATM    9  C   UNL     1       1.399   0.723  -0.888  1.00  0.00     0.145 A 
HETATM   10  N   UNL     1       2.750   0.681  -0.991  1.00  0.00    -0.365 N 
HETATM   11  H   UNL     1       3.190   0.905  -1.887  1.00  0.00     0.162 HD
ENDROOT
BRANCH   6  12
HETATM   12  C   UNL     1      -2.198   0.927  -1.568  1.00  0.00     0.276 C 
HETATM   13  O   UNL     1      -2.435   1.504  -2.630  1.00  0.00    -0.266 OA
HETATM   14  N   UNL     1      -3.273   0.376  -0.833  1.00  0.00    -0.343 N 
HETATM   15  C   UNL     1      -3.116  -0.378   0.431  1.00  0.00     0.154 C 
HETATM   16  C   UNL     1      -4.603   0.916  -1.175  1.00  0.00     0.159 C 
HETATM   17  C   UNL     1      -4.249  -1.389   0.740  1.00  0.00     0.255 C 
HETATM   18  N   UNL     1      -5.395  -1.207  -0.212  1.00  0.00    -0.064 N 
HETATM   19  C   UNL     1      -6.679  -1.934   0.072  1.00  0.00     0.235 C 
HETATM   20  C   UNL     1      -5.734   0.260  -0.386  1.00  0.00     0.206 C 
HETATM   21  H   UNL     1      -5.049  -1.529  -1.129  1.00  0.00     0.280 HD
HETATM   22  C   UNL     1      -7.777  -0.926  -0.264  1.00  0.00     0.030 C 
HETATM   23  C   UNL     1      -7.092   0.184  -1.052  1.00  0.00     0.036 C 
ENDBRANCH   6  12
BRANCH   3  24
HETATM   24  C   UNL     1       0.851  -0.246   2.597  1.00  0.00     0.409 C 
HETATM   25  F   UNL     1      -0.401   0.134   2.943  1.00  0.00    -0.169 F 
HETATM   26  F   UNL     1       1.567  -0.292   3.747  1.00  0.00    -0.169 F 
HETATM   27  F   UNL     1       0.772  -1.513   2.129  1.00  0.00    -0.169 F 
ENDBRANCH   3  24
BRANCH   1  28
HETATM   28  C   UNL     1       5.006   0.609  -0.064  1.00  0.00    -0.035 A 
HETATM   29  C   UNL     1       6.043   1.515   0.204  1.00  0.00     0.010 A 
HETATM   30  C   UNL     1       7.377   1.153   0.002  1.00  0.00     0.007 A 
HETATM   31  C   UNL     1       7.704  -0.120  -0.479  1.00  0.00    -0.062 A 
HETATM   32  C   UNL     1       9.140  -0.513  -0.665  1.00  0.00     0.048 C 
HETATM   33  C   UNL     1       6.676  -1.033  -0.733  1.00  0.00     0.007 A 
HETATM   34  C   UNL     1       5.342  -0.671  -0.532  1.00  0.00     0.010 A 
ENDBRANCH   1  28
TORSDOF 3
