@<TRIPOS>MOLECULE
ZINC20533791
 47 50 0 0 0
SMALL
GASTEIGER

@<TRIPOS>ATOM
      1 H           2.2480   -0.1287    2.0836 H       1  UNL1        0.1887
      2 N           1.2554   -0.1509    2.3662 N.2     1  UNL1       -0.2781
      3 C           0.6227   -0.5403    1.3103 C.2     1  UNL1        0.1769
      4 S          -1.0980   -0.6991    1.4183 S.3     1  UNL1       -0.0757
      5 C          -1.5278   -0.5384   -0.3274 C.3     1  UNL1        0.0972
      6 C          -3.0309   -0.7478   -0.5318 C.2     1  UNL1        0.2311
      7 O          -3.4488   -1.6202   -1.2876 O.2     1  UNL1       -0.2742
      8 N          -3.7955    0.1708    0.1683 N.am    1  UNL1       -0.2846
      9 C          -5.1938    0.3483    0.1239 C.ar    1  UNL1        0.0335
     10 C          -6.0438   -0.3391   -0.7411 C.ar    1  UNL1       -0.0399
     11 C          -7.4216   -0.0816   -0.7313 C.ar    1  UNL1       -0.0511
     12 C          -7.9792    0.8669    0.1393 C.ar    1  UNL1       -0.0026
     13 C          -9.4698    1.1489    0.1427 C.2     1  UNL1        0.0717
     14 O         -10.1874    0.4902   -0.6740 O.co2   1  UNL1       -0.5446
     15 O          -9.8890    2.0266    0.9623 O.co2   1  UNL1       -0.5446
     16 C          -7.1156    1.5501    1.0060 C.ar    1  UNL1       -0.0511
     17 C          -5.7405    1.2954    0.9984 C.ar    1  UNL1       -0.0399
     18 C          -0.7160   -1.5624   -1.0887 C.3     1  UNL1        0.0468
     19 C           0.7357   -1.1694   -1.1130 C.2     1  UNL1        0.2426
     20 O           1.3409   -1.1597   -2.1885 O.2     1  UNL1       -0.2734
     21 N           1.3124   -0.8397    0.1296 N.am    1  UNL1       -0.1368
     22 N           2.6864   -0.5483    0.2147 N.2     1  UNL1       -0.1783
     23 C           3.5081   -1.2095   -0.5338 C.2     1  UNL1        0.0555
     24 C           4.9237   -0.8961   -0.4879 C.ar    1  UNL1        0.0196
     25 C           5.8793   -1.6060   -1.1930 C.ar    1  UNL1        0.0114
     26 N           7.1062   -1.0613   -0.9291 N.ar    1  UNL1       -0.3600
     27 C           6.9797   -0.0015   -0.0632 C.ar    1  UNL1        0.0471
     28 C           7.9620    0.8409    0.4729 C.ar    1  UNL1       -0.0378
     29 C           7.5460    1.8574    1.3361 C.ar    1  UNL1       -0.0598
     30 C           6.2001    2.0244    1.6470 C.ar    1  UNL1       -0.0611
     31 C           5.2313    1.1735    1.1018 C.ar    1  UNL1       -0.0520
     32 C           5.6201    0.1329    0.2300 C.ar    1  UNL1        0.0083
     33 H          -1.2857    0.4767   -0.6665 H       1  UNL1        0.0516
     34 H          -3.3100    0.7337    0.8575 H       1  UNL1        0.1548
     35 H          -5.6772   -1.0793   -1.4432 H       1  UNL1        0.0636
     36 H          -8.0773   -0.6231   -1.4123 H       1  UNL1        0.0625
     37 H          -7.5299    2.2893    1.6902 H       1  UNL1        0.0625
     38 H          -5.1153    1.8532    1.6887 H       1  UNL1        0.0636
     39 H          -1.0549   -1.6067   -2.1321 H       1  UNL1        0.0375
     40 H          -0.8106   -2.5792   -0.6876 H       1  UNL1        0.0375
     41 H           3.2144   -2.0489   -1.1868 H       1  UNL1        0.0852
     42 H           5.7887   -2.4523   -1.8614 H       1  UNL1        0.0813
     43 H           7.9836   -1.3829   -1.3140 H       1  UNL1        0.1654
     44 H           9.0119    0.7157    0.2296 H       1  UNL1        0.0638
     45 H           8.2838    2.5289    1.7688 H       1  UNL1        0.0618
     46 H           5.8930    2.8230    2.3179 H       1  UNL1        0.0618
     47 H           4.1853    1.3256    1.3519 H       1  UNL1        0.0624
@<TRIPOS>UNITY_ATOM_ATTR
15 1
charge -1
@<TRIPOS>BOND
     1     1     2    1
     2     2     3    2
     3     3     4    1
     4     4     5    1
     5     5     6    1
     6     6     7    2
     7     6     8   am
     8     8     9    1
     9     9    10   ar
    10    10    11   ar
    11    11    12   ar
    12    12    13    1
    13    13    14   ar
    14    13    15   ar
    15    12    16   ar
    16    16    17   ar
    17     5    18    1
    18    18    19    1
    19    19    20    2
    20    19    21   am
    21    21    22    1
    22    22    23    2
    23    23    24    1
    24    24    25   ar
    25    25    26   ar
    26    26    27   ar
    27    27    28   ar
    28    28    29   ar
    29    29    30   ar
    30    30    31   ar
    31    31    32   ar
    32    21     3    1
    33    32    24   ar
    34    17     9   ar
    35    32    27   ar
    36     5    33    1
    37     8    34    1
    38    10    35    1
    39    11    36    1
    40    16    37    1
    41    17    38    1
    42    18    39    1
    43    18    40    1
    44    23    41    1
    45    25    42    1
    46    26    43    1
    47    28    44    1
    48    29    45    1
    49    30    46    1
    50    31    47    1
