@<TRIPOS>MOLECULE
ZINC20533791
 58 62 0 0 0
SMALL
GASTEIGER

@<TRIPOS>ATOM
      1 C           9.1397   -0.5129   -0.6654 C.3     1  UNL1       -0.0397
      2 C           7.7037   -0.1197   -0.4791 C.ar    1  UNL1       -0.0504
      3 C           7.3772    1.1525    0.0018 C.ar    1  UNL1       -0.0585
      4 C           6.0426    1.5149    0.2041 C.ar    1  UNL1       -0.0566
      5 C           5.0061    0.6089   -0.0636 C.ar    1  UNL1       -0.0272
      6 C           3.5665    1.0113    0.1771 C.3     1  UNL1        0.0494
      7 C           2.9800    0.3002    1.4046 C.3     1  UNL1        0.0007
      8 C           1.5037    0.6938    1.6058 C.3     1  UNL1        0.1512
      9 C           0.8508   -0.2460    2.5966 C.3     1  UNL1        0.4119
     10 F          -0.4010    0.1342    2.9434 F       1  UNL1       -0.1684
     11 F           1.5669   -0.2916    3.7474 F       1  UNL1       -0.1684
     12 F           0.7723   -1.5131    2.1289 F       1  UNL1       -0.1684
     13 N           0.7895    0.6999    0.3369 N.ar    1  UNL1       -0.2368
     14 N          -0.5483    0.8137    0.2756 N.ar    1  UNL1       -0.1628
     15 C          -0.8220    0.8162   -1.0494 C.ar    1  UNL1        0.1674
     16 C          -2.1977    0.9267   -1.5680 C.2     1  UNL1        0.2686
     17 O          -2.4353    1.5038   -2.6298 O.2     1  UNL1       -0.2682
     18 N          -3.2729    0.3759   -0.8326 N.am    1  UNL1       -0.2858
     19 C          -3.1164   -0.3783    0.4315 C.3     1  UNL1        0.0553
     20 C          -4.2491   -1.3895    0.7403 C.3     1  UNL1       -0.0154
     21 N          -5.3953   -1.2070   -0.2118 N.4     1  UNL1        0.2396
     22 C          -6.6791   -1.9343    0.0717 C.3     1  UNL1       -0.0313
     23 C          -7.7766   -0.9264   -0.2636 C.3     1  UNL1       -0.0074
     24 C          -7.0917    0.1838   -1.0524 C.3     1  UNL1       -0.0034
     25 C          -5.7341    0.2595   -0.3855 C.3     1  UNL1       -0.0045
     26 C          -4.6027    0.9164   -1.1745 C.3     1  UNL1        0.0581
     27 C           0.3817    0.7781   -1.8111 C.ar    1  UNL1        0.1123
     28 CL          0.5399    0.7850   -3.5006 Cl      1  UNL1       -0.0776
     29 C           1.3987    0.7232   -0.8877 C.ar    1  UNL1        0.1374
     30 N           2.7503    0.6814   -0.9906 N.pl3   1  UNL1       -0.3212
     31 C           5.3420   -0.6715   -0.5318 C.ar    1  UNL1       -0.0566
     32 C           6.6763   -1.0329   -0.7332 C.ar    1  UNL1       -0.0585
     33 H           9.5636   -0.8445    0.2876 H       1  UNL1        0.0278
     34 H           9.7260    0.3319   -1.0419 H       1  UNL1        0.0278
     35 H           9.2347   -1.3251   -1.3940 H       1  UNL1        0.0278
     36 H           8.1640    1.8721    0.2203 H       1  UNL1        0.0620
     37 H           5.8258    2.5150    0.5732 H       1  UNL1        0.0621
     38 H           3.5176    2.0981    0.3289 H       1  UNL1        0.0548
     39 H           3.0540   -0.7891    1.2752 H       1  UNL1        0.0310
     40 H           3.5580    0.5468    2.3043 H       1  UNL1        0.0310
     41 H           1.4506    1.7236    1.9801 H       1  UNL1        0.0636
     42 H          -3.0613    0.3600    1.2400 H       1  UNL1        0.0517
     43 H          -2.1802   -0.9426    0.4193 H       1  UNL1        0.0517
     44 H          -3.9021   -2.4202    0.6145 H       1  UNL1        0.0830
     45 H          -4.6216   -1.2584    1.7619 H       1  UNL1        0.0830
     46 H          -5.0491   -1.5292   -1.1288 H       1  UNL1        0.2037
     47 H          -6.7022   -2.8145   -0.5774 H       1  UNL1        0.0814
     48 H          -6.7024   -2.2335    1.1238 H       1  UNL1        0.0814
     49 H          -8.5988   -1.3844   -0.8216 H       1  UNL1        0.0319
     50 H          -8.1965   -0.5201    0.6647 H       1  UNL1        0.0319
     51 H          -7.0046   -0.1018   -2.1075 H       1  UNL1        0.0322
     52 H          -7.6388    1.1293   -0.9967 H       1  UNL1        0.0322
     53 H          -5.8134    0.6868    0.6233 H       1  UNL1        0.0867
     54 H          -4.5952    1.9975   -0.9908 H       1  UNL1        0.0520
     55 H          -4.7532    0.7731   -2.2515 H       1  UNL1        0.0520
     56 H           3.1897    0.9049   -1.8870 H       1  UNL1        0.1481
     57 H           4.5620   -1.3991   -0.7481 H       1  UNL1        0.0621
     58 H           6.9080   -2.0329   -1.0936 H       1  UNL1        0.0620
@<TRIPOS>UNITY_ATOM_ATTR
21 1
charge 1
@<TRIPOS>BOND
     1     1     2    1
     2     2     3   ar
     3     3     4   ar
     4     4     5   ar
     5     5     6    1
     6     6     7    1
     7     7     8    1
     8     8     9    1
     9     9    10    1
    10     9    11    1
    11     9    12    1
    12     8    13    1
    13    13    14   ar
    14    14    15   ar
    15    15    16    1
    16    16    17    2
    17    16    18   am
    18    18    19    1
    19    19    20    1
    20    20    21    1
    21    21    22    1
    22    22    23    1
    23    23    24    1
    24    24    25    1
    25    25    26    1
    26    15    27   ar
    27    27    28    1
    28    27    29   ar
    29    29    30    1
    30     5    31   ar
    31    31    32   ar
    32    32     2   ar
    33    30     6    1
    34    29    13   ar
    35    26    18    1
    36    25    21    1
    37     1    33    1
    38     1    34    1
    39     1    35    1
    40     3    36    1
    41     4    37    1
    42     6    38    1
    43     7    39    1
    44     7    40    1
    45     8    41    1
    46    19    42    1
    47    19    43    1
    48    20    44    1
    49    20    45    1
    50    21    46    1
    51    22    47    1
    52    22    48    1
    53    23    49    1
    54    23    50    1
    55    24    51    1
    56    24    52    1
    57    25    53    1
    58    26    54    1
    59    26    55    1
    60    30    56    1
    61    31    57    1
    62    32    58    1
