@<TRIPOS>MOLECULE
ZINC08441965
  62   66    0    0    0
SMALL
NO_CHARGES


@<TRIPOS>ATOM
   1 H1             0.3043    -0.1747    -0.0910 H       
   2 N2             0.2209     0.7907    -0.0485 N.2     
   3 C3             1.2690     1.5244    -0.0574 C.2     
   4 C4             2.6505     0.9083    -0.1402 C.3     
   5 C5             2.5449    -0.5064    -0.5327 C.1     
   6 N6             2.4634    -1.5983    -0.8357 N.1     
   7 C7             3.4287     1.6794    -1.1921 C.2     
   8 C8             4.1135     1.0161    -2.0798 C.2     
   9 C9             4.9105     1.7126    -3.1485 C.3     
  10 N10            5.3214     3.0337    -2.6515 N.4     
  11 H11            5.8911     2.9220    -1.8262 H       
  12 C12            6.0912     3.7321    -3.6897 C.3     
  13 C13            7.3756     2.9876    -3.9489 C.ar    
  14 C14            8.5103     3.2926    -3.2208 C.ar    
  15 C15            9.6884     2.6098    -3.4586 C.ar    
  16 C16            9.7317     1.6216    -4.4243 C.ar    
  17 C17            8.5968     1.3160    -5.1518 C.ar    
  18 C18            7.4175     1.9959    -4.9110 C.ar    
  19 C19            4.1235     3.8104    -2.3196 C.3     
  20 C20            3.3710     3.1806    -1.1573 C.3     
  21 C21            1.9100     3.6388    -1.1773 C.3     
  22 C22            1.2599     3.1866    -2.4594 C.ar    
  23 C23            1.1931     1.8603    -2.7607 C.ar    
  24 C24            0.5972     1.4207    -3.9393 C.ar    
  25 C25            0.0618     2.3091    -4.8293 C.ar    
  26 O26           -0.5163     1.8647    -5.9750 O.3     
  27 C27           -0.5310     0.4519    -6.1887 C.3     
  28 C28            0.1133     3.6897    -4.5495 C.ar    
  29 C29           -0.4258     4.6344    -5.4377 C.ar    
  30 C30           -0.3581     5.9597    -5.1341 C.ar    
  31 C31            0.2392     6.3955    -3.9528 C.ar    
  32 C32            0.7720     5.5085    -3.0686 C.ar    
  33 C33            0.7155     4.1316    -3.3454 C.ar    
  34 C34            1.1641     3.0316     0.0080 C.3     
  35 C35           -0.2517     3.4315    -0.0435 C.1     
  36 N36           -1.3442     3.7401    -0.0832 N.1     
  37 C37            1.7668     3.5053     1.2646 C.1     
  38 N38            2.2319     3.8708     2.2344 N.1     
  39 H39            3.1504     0.9885     0.8251 H       
  40 H40            4.1090    -0.0634    -2.0474 H       
  41 H41            5.7945     1.1216    -3.3881 H       
  42 H42            4.2969     1.8331    -4.0413 H       
  43 H43            5.5055     3.7769    -4.6079 H       
  44 H44            6.3190     4.7438    -3.3542 H       
  45 H45            8.4765     4.0647    -2.4663 H       
  46 H46           10.5752     2.8486    -2.8902 H       
  47 H47           10.6524     1.0886    -4.6106 H       
  48 H48            8.6307     0.5442    -5.9065 H       
  49 H49            6.5308     1.7571    -5.4795 H       
  50 H50            4.4179     4.8242    -2.0485 H       
  51 H51            3.4693     3.8492    -3.1906 H       
  52 H52            3.8171     3.5256    -0.2244 H       
  53 H53            1.8699     4.7262    -1.1140 H       
  54 H54            1.6094     1.1378    -2.0743 H       
  55 H55            0.5576     0.3630    -4.1537 H       
  56 H56           -1.0202     0.2330    -7.1378 H       
  57 H57            0.4924     0.0774    -6.2126 H       
  58 H58           -1.0762    -0.0324    -5.3786 H       
  59 H59           -0.8913     4.3112    -6.3570 H       
  60 H60           -0.7732     6.6842    -5.8192 H       
  61 H61            0.2801     7.4527    -3.7359 H       
  62 H62            1.2321     5.8606    -2.1572 H       
@<TRIPOS>BOND
   1    1    2 1
   2    2    3 2
   3    3   34 1
   4    3    4 1
   5    4    5 1
   6    4    7 1
   7    4   39 1
   8    5    6 3
   9    7   20 1
  10    7    8 2
  11    8    9 1
  12    8   40 1
  13    9   10 1
  14    9   41 1
  15    9   42 1
  16   10   11 1
  17   10   12 1
  18   10   19 1
  19   12   13 1
  20   12   43 1
  21   12   44 1
  22   13   18 ar
  23   13   14 ar
  24   14   15 ar
  25   14   45 1
  26   15   16 ar
  27   15   46 1
  28   16   17 ar
  29   16   47 1
  30   17   18 ar
  31   17   48 1
  32   18   49 1
  33   19   20 1
  34   19   50 1
  35   19   51 1
  36   20   21 1
  37   20   52 1
  38   21   22 1
  39   21   34 1
  40   21   53 1
  41   22   33 ar
  42   22   23 ar
  43   23   24 ar
  44   23   54 1
  45   24   25 ar
  46   24   55 1
  47   25   26 1
  48   25   28 ar
  49   26   27 1
  50   27   56 1
  51   27   57 1
  52   27   58 1
  53   28   33 ar
  54   28   29 ar
  55   29   30 ar
  56   29   59 1
  57   30   31 ar
  58   30   60 1
  59   31   32 ar
  60   31   61 1
  61   32   33 ar
  62   32   62 1
  63   34   35 1
  64   34   37 1
  65   35   36 3
  66   37   38 3
